LAMMPS (12 Dec 2018)
# CuZr simulation

clear

boundary        p p p
units           metal
atom_style      atomic

read_data       Ag7.in.dat
  orthogonal box = (-42.4782 -42.4782 -42.4782) to (42.4782 42.4782 42.4782)
  reading atoms ...
  32000 atoms
mass            1  91.22
mass            2  63.55
mass            3  107.87

variable i equal 50000

pair_style      eam/alloy
pair_coeff      * * ZrCuAg.lammps.eam Zr Cu Ag

timestep       0.001

thermo_style    custom step temp ke pe etotal enthalpy press vol pxx pyy pzz pyz pxz pxy
thermo          100

fix             1 all npt temp 300 1700 0.2 iso 0.0 0.0 0.2
run     7000
  update every 1 steps, delay 10 steps, check yes
Step Temp KinEng PotEng TotEng Enthalpy Press Volume Pxx Pyy Pzz Pyz Pxz Pxy
0            0            0   -133972.23   -133972.23    -120564.7    35032.384    613181.97    34313.407    34750.852    36032.893   -74.746024    101.24986   -548.02174
Averages over the last 36 of 71 rows, steps 3500 to 7000:
Temp KinEng PotEng TotEng Enthalpy Press Volume Pxx Pyy Pzz Pyz Pxz Pxy
1340.12 5543.01 -146324 -140781 -140756 69.5122 594544 77.798 -2.6253 133.364 -34.4597 -101.681 108.736
Loop time of 59.4867 on 32 procs for 7000 steps with 32000 atoms

unfix 1

fix             1 all npt temp 1700 1700 0.2 iso 0.0 0.0 0.2
run     7000
Step Temp KinEng PotEng TotEng Enthalpy Press Volume Pxx Pyy Pzz Pyz Pxz Pxy
7000    1690.1938     6990.972   -143862.47    -136871.5   -136853.73    46.831098    607726.29   -396.16454    348.95102    187.70682    91.501192   -112.18624    486.75322
Averages over the last 36 of 71 rows, steps 10500 to 14000:
Temp KinEng PotEng TotEng Enthalpy Press Volume Pxx Pyy Pzz Pyz Pxz Pxy
1700.62 7034.11 -143624 -136590 -136588 6.60882 608782 60.5625 24.9038 -65.6398 56.7393 -38.2262 29.4989
Loop time of 58.288 on 32 procs for 7000 steps with 32000 atoms

unfix 1

dump            melt all custom 100000 dumpAg7mix.lammpstrj id type x y z

fix             1 all npt temp 1700 1000 0.2 iso 0.0 0.0 0.2
run     50000
Step Temp KinEng PotEng TotEng Enthalpy Press Volume Pxx Pyy Pzz Pyz Pxz Pxy
14000    1701.8436    7039.1575   -143663.52   -136624.36   -136482.94    372.50234    608274.45    390.90397    268.94606      457.657    359.39182   -303.03711   -377.26075
Averages over the last 251 of 501 rows, steps 39000 to 64000:
Temp KinEng PotEng TotEng Enthalpy Press Volume Pxx Pyy Pzz Pyz Pxz Pxy
1178.48 4874.41 -147311 -142436 -142436 2.29738 589617 -68.3581 43.4959 31.7543 68.8729 52.8776 8.23965
Loop time of 417.5 on 32 procs for 50000 steps with 32000 atoms

unfix 1

fix             1 all npt temp 1000 1000 0.2 iso 0.0 0.0 0.2
run     50000
Step Temp KinEng PotEng TotEng Enthalpy Press Volume Pxx Pyy Pzz Pyz Pxz Pxy
64000    1010.2215    4178.4735   -148667.63   -144489.16   -144074.07    1141.9126    582392.51    1029.1082    841.10059    1555.5291    12.779693    290.16832    299.44775
Averages over the last 251 of 501 rows, steps 89000 to 114000:
Temp KinEng PotEng TotEng Enthalpy Press Volume Pxx Pyy Pzz Pyz Pxz Pxy
999.694 4134.93 -148793 -144658 -144660 -5.47726 582712 87.4808 -140.569 36.6563 46.7222 4.19453 -0.887582
Loop time of 424.214 on 32 procs for 50000 steps with 32000 atoms

unfix 1

fix             1 all npt temp 1000 900 0.2 iso 0.0 0.0 0.2
run     50000
Step Temp KinEng PotEng TotEng Enthalpy Press Volume Pxx Pyy Pzz Pyz Pxz Pxy
114000    1004.1442    4153.3367   -148799.26   -144645.92   -144343.95    831.10245    582144.89    928.94609    549.74596    1014.6153   -141.32661    578.08919    21.981492
Averages over the last 251 of 501 rows, steps 139000 to 164000:
Temp KinEng PotEng TotEng Enthalpy Press Volume Pxx Pyy Pzz Pyz Pxz Pxy
925.455 3827.86 -149378 -145550 -145550 2.21064 580033 113.257 -54.0903 -52.5344 -89.6567 -0.724445 -46.9608
Loop time of 425.45 on 32 procs for 50000 steps with 32000 atoms

unfix 1

fix             1 all npt temp 900 900 0.2 iso 0.0 0.0 0.2
run     50000
Step Temp KinEng PotEng TotEng Enthalpy Press Volume Pxx Pyy Pzz Pyz Pxz Pxy
164000    901.51297    3728.8338   -149601.31   -145872.47   -145745.47    351.48383    578904.09    211.53659    435.05321    407.86168    -528.3788   -482.50258   -42.259109
Averages over the last 251 of 501 rows, steps 189000 to 214000:
Temp KinEng PotEng TotEng Enthalpy Press Volume Pxx Pyy Pzz Pyz Pxz Pxy
899.888 3722.11 -149641 -145919 -145924 -12.9154 578889 -147.336 204.233 -95.6438 142.372 0.453515 -80.3309
Loop time of 426.718 on 32 procs for 50000 steps with 32000 atoms

unfix 1

fix             1 all npt temp 900 800 0.2 iso 0.0 0.0 0.2
run     50000
Step Temp KinEng PotEng TotEng Enthalpy Press Volume Pxx Pyy Pzz Pyz Pxz Pxy
214000    898.12392     3714.816    -149632.2   -145917.38   -145862.29    152.47777    578868.61    244.14342    221.07601    -7.786136    468.69472    40.468032    486.77728
Averages over the last 251 of 501 rows, steps 239000 to 264000:
Temp KinEng PotEng TotEng Enthalpy Press Volume Pxx Pyy Pzz Pyz Pxz Pxy
825.971 3416.38 -150171 -146755 -146754 4.03072 576335 148.933 -88.9146 -47.9266 40.5511 31.201 23.7727
Loop time of 430.55 on 32 procs for 50000 steps with 32000 atoms

unfix 1

fix             1 all npt temp 800 800 0.2 iso 0.0 0.0 0.2
run     50000
Step Temp KinEng PotEng TotEng Enthalpy Press Volume Pxx Pyy Pzz Pyz Pxz Pxy
264000     799.6229    3307.3965   -150329.78   -147022.38   -147499.48   -1326.2705    576340.99   -1230.4701   -1210.4385    -1537.903    502.32159   -98.901665   -23.484347
Averages over the last 251 of 501 rows, steps 289000 to 314000:
Temp KinEng PotEng TotEng Enthalpy Press Volume Pxx Pyy Pzz Pyz Pxz Pxy
800.247 3309.98 -150442 -147132 -147128 9.41315 575116 -60.8987 126.903 -37.7654 -107.036 -74.4155 -91.7976
Loop time of 433.025 on 32 procs for 50000 steps with 32000 atoms

unfix 1

fix             1 all npt temp 800 700 0.2 iso 0.0 0.0 0.2
run     50000
Step Temp KinEng PotEng TotEng Enthalpy Press Volume Pxx Pyy Pzz Pyz Pxz Pxy
314000    799.92958     3308.665   -150453.78   -147145.12   -146908.35    660.06917    574706.03    88.356813    675.56295    1216.2877    402.90627   -140.82058    141.15662
Averages over the last 251 of 501 rows, steps 339000 to 364000:
Temp KinEng PotEng TotEng Enthalpy Press Volume Pxx Pyy Pzz Pyz Pxz Pxy
725.252 2999.79 -150902 -147903 -147893 27.5305 572926 33.0838 22.0504 27.4574 -132.857 -7.35994 -56.4282
Loop time of 429.242 on 32 procs for 50000 steps with 32000 atoms

unfix 1

fix             1 all npt temp 700 700 0.2 iso 0.0 0.0 0.2
run     50000
Step Temp KinEng PotEng TotEng Enthalpy Press Volume Pxx Pyy Pzz Pyz Pxz Pxy
364000    699.84848    2894.7101   -151059.42   -148164.71   -147899.22    744.02456    571699.05    211.26373    887.78297     1133.027   -459.09099   -120.64809   -246.87479
Averages over the last 251 of 501 rows, steps 389000 to 414000:
Temp KinEng PotEng TotEng Enthalpy Press Volume Pxx Pyy Pzz Pyz Pxz Pxy
699.34 2892.61 -151109 -148216 -148208 23.8804 571949 383.667 -310.664 -1.36126 37.5853 99.9979 -131.813
Loop time of 429.197 on 32 procs for 50000 steps with 32000 atoms

unfix 1

fix             1 all npt temp 700 700 0.2 iso 0.0 0.0 0.2
run     50000
Step Temp KinEng PotEng TotEng Enthalpy Press Volume Pxx Pyy Pzz Pyz Pxz Pxy
414000    698.19111    2887.8548   -151134.55    -148246.7   -148357.43   -310.16208    572007.97    434.07663   -673.80761   -690.75527    213.78743    103.18854   -41.632044
Averages over the last 251 of 501 rows, steps 439000 to 464000:
Temp KinEng PotEng TotEng Enthalpy Press Volume Pxx Pyy Pzz Pyz Pxz Pxy
700.482 2897.33 -151137 -148239 -148231 23.6979 571869 272.222 -270.128 68.9991 -42.1115 0.973661 18.4891
Loop time of 437.187 on 32 procs for 50000 steps with 32000 atoms

unfix 1

fix             1 all npt temp 700 600 0.2 iso 0.0 0.0 0.2
run     50000
Step Temp KinEng PotEng TotEng Enthalpy Press Volume Pxx Pyy Pzz Pyz Pxz Pxy
464000    699.28115    2892.3635   -151125.77   -148233.41   -148477.05   -682.09615    572280.27   -406.00942   -1080.2729   -560.00612   -233.28132   -163.70652   -27.820552
Averages over the last 251 of 501 rows, steps 489000 to 514000:
Temp KinEng PotEng TotEng Enthalpy Press Volume Pxx Pyy Pzz Pyz Pxz Pxy
625.21 2585.99 -151551 -148965 -148954 31.7964 569826 -44.7337 30.5442 109.579 4.86147 -105.475 27.6282
Loop time of 438.079 on 32 procs for 50000 steps with 32000 atoms

unfix 1

fix             1 all npt temp 600 500 0.2 iso 0.0 0.0 0.2
run     50000
Step Temp KinEng PotEng TotEng Enthalpy Press Volume Pxx Pyy Pzz Pyz Pxz Pxy
514000    598.88133    2477.0902   -151682.07   -149204.98   -149472.52   -752.45002    569676.44   -671.20373   -716.37519   -869.77114   -59.838742   -62.874004    228.60781
Averages over the last 251 of 501 rows, steps 539000 to 564000:
Temp KinEng PotEng TotEng Enthalpy Press Volume Pxx Pyy Pzz Pyz Pxz Pxy
525.295 2172.72 -152056 -149883 -149895 -33.2937 567349 -266.913 -53.4868 220.519 35.938 -0.81557 22.3229
Loop time of 439.692 on 32 procs for 50000 steps with 32000 atoms

unfix 1

fix             1 all npt temp 500 500 0.2 iso 0.0 0.0 0.2
run     50000
Step Temp KinEng PotEng TotEng Enthalpy Press Volume Pxx Pyy Pzz Pyz Pxz Pxy
564000    500.95384     2072.043   -152184.85    -150112.8   -149890.88    627.76072    566386.73    125.98961    590.50827    1166.7843    27.951414   -148.97946   -300.70237
Averages over the last 251 of 501 rows, steps 589000 to 614000:
Temp KinEng PotEng TotEng Enthalpy Press Volume Pxx Pyy Pzz Pyz Pxz Pxy
500.024 2068.2 -152184 -150116 -150116 0.902359 566680 -213.112 -164.479 380.298 -172.897 14.5395 -33.3027
Loop time of 443.7 on 32 procs for 50000 steps with 32000 atoms

unfix 1

fix             1 all npt temp 500 400 0.2 iso 0.0 0.0 0.2
run     50000
Step Temp KinEng PotEng TotEng Enthalpy Press Volume Pxx Pyy Pzz Pyz Pxz Pxy
614000    499.84318    2067.4491   -152184.89   -150117.44   -150170.88   -151.08047    566732.61    -797.0439    141.55204    202.25046    -339.4551   -138.48381   -194.93484
Averages over the last 251 of 501 rows, steps 639000 to 664000:
Temp KinEng PotEng TotEng Enthalpy Press Volume Pxx Pyy Pzz Pyz Pxz Pxy
425.192 1758.68 -152537 -150778 -150778 -0.382965 564924 -219.052 -84.7468 302.65 -310.293 -82.7881 -68.8182
Loop time of 440.523 on 32 procs for 50000 steps with 32000 atoms

unfix 1

fix             1 all npt temp 400 400 0.2 iso 0.0 0.0 0.2
run     50000
Step Temp KinEng PotEng TotEng Enthalpy Press Volume Pxx Pyy Pzz Pyz Pxz Pxy
664000    402.28559    1663.9318   -152640.35   -150976.42   -150824.37    431.81304    564157.49    424.82546    60.740221    809.87343   -226.22356    -25.72602   -179.86289
Averages over the last 251 of 501 rows, steps 689000 to 714000:
Temp KinEng PotEng TotEng Enthalpy Press Volume Pxx Pyy Pzz Pyz Pxz Pxy
400.649 1657.16 -152654 -150997 -150995 5.05502 564315 -136.272 -30.9092 182.347 -389.034 -84.9722 -200.955
Loop time of 440.958 on 32 procs for 50000 steps with 32000 atoms

unfix 1

fix             1 all npt temp 400 300 0.2 iso 0.0 0.0 0.2
run     50000
Step Temp KinEng PotEng TotEng Enthalpy Press Volume Pxx Pyy Pzz Pyz Pxz Pxy
714000    401.95367    1662.5589   -152653.41   -150990.85   -150670.51    910.22088    563856.51    1203.8411    564.67201    962.14953   -436.23304   -67.733454   -107.41932
Averages over the last 251 of 501 rows, steps 739000 to 764000:
Temp KinEng PotEng TotEng Enthalpy Press Volume Pxx Pyy Pzz Pyz Pxz Pxy
325.143 1344.85 -152996 -151651 -151651 2.25625 562597 -17.368 -119.501 143.637 -327.802 -91.7597 -193.332
Loop time of 438.798 on 32 procs for 50000 steps with 32000 atoms

unfix 1

fix             1 all npt temp 300 300 0.2 iso 0.0 0.0 0.2
run     50000
Step Temp KinEng PotEng TotEng Enthalpy Press Volume Pxx Pyy Pzz Pyz Pxz Pxy
764000    299.71058    1239.6615   -153108.79   -151869.13   -151683.01    530.76914    561818.83    783.02689    293.66898    515.61155   -510.09912   -51.243261    -153.1703
Averages over the last 251 of 501 rows, steps 789000 to 814000:
Temp KinEng PotEng TotEng Enthalpy Press Volume Pxx Pyy Pzz Pyz Pxz Pxy
299.885 1240.38 -153110 -151870 -151871 -2.25307 562019 -95.9965 -156.984 246.222 -250.917 -142.939 -137.72
Loop time of 439.943 on 32 procs for 50000 steps with 32000 atoms

unfix 1
