LAMMPS (12 Dec 2018)
# CuZr simulation

clear

boundary        p p p
units           metal
atom_style      atomic

read_data       Ag0.in.dat
  orthogonal box = (-42.4782 -42.4782 -42.4782) to (42.4782 42.4782 42.4782)
  reading atoms ...
  32000 atoms
mass            1  91.22
mass            2  63.55
mass            3  107.87

pair_style      eam/alloy
pair_coeff      * * ZrCuAg.lammps.eam Zr Cu Ag

timestep       0.001

thermo_style    custom step temp ke pe etotal enthalpy press vol pxx pyy pzz pyz pxz pxy
thermo          100

fix             1 all npt temp 1700 1700 0.2 iso 0.0 0.0 0.2
run     500000
  update every 1 steps, delay 10 steps, check yes
Step Temp KinEng PotEng TotEng Enthalpy Press Volume Pxx Pyy Pzz Pyz Pxz Pxy
0            0            0   -138872.51   -138872.51   -128068.75    28229.049    613181.97    27314.927    28095.423    29276.796    12.743871    591.22709   -419.97144
Averages over the last 2501 of 5001 rows, steps 250000 to 500000:
Temp KinEng PotEng TotEng Enthalpy Press Volume Pxx Pyy Pzz Pyz Pxz Pxy
1700.01 7031.58 -148762 -141731 -141728 8.94748 605776 10.1973 -0.0912089 16.7364 6.23185 2.61763 28.9631
Loop time of 50969.9 on 32 procs for 500000 steps with 32000 atoms

dump            melt all custom 50000 dumpAg0prueba.lammpstrj id type x y z
fix             1 all npt temp 1700 400 0.2 iso 0 0 0.2
run 1600000
Step Temp KinEng PotEng TotEng Enthalpy Press Volume Pxx Pyy Pzz Pyz Pxz Pxy
500000    1703.4624    7045.8532   -148735.05   -141689.19   -141448.88    635.79478    605575.54    649.25659    270.25997    987.86777   -103.87402     232.3099    227.76284
Averages over the last 8001 of 16001 rows, steps 1300000 to 2100000:
Temp KinEng PotEng TotEng Enthalpy Press Volume Pxx Pyy Pzz Pyz Pxz Pxy
725.134 2999.3 -155890 -152890 -152891 -0.338759 572962 -151.201 66.8048 83.3797 141.026 0.642343 1.53772
Loop time of 17264.5 on 32 procs for 1600000 steps with 32000 atoms
