LAMMPS (12 Dec 2018)
clear

boundary        p p p
units           metal
atom_style      atomic

read_data       Ag10.in.dat
  orthogonal box = (-32.5 -32.5 -32.5) to (32.5 32.5 32.5)
  reading atoms ...
  16000 atoms
mass            1  91.22
mass            2  63.55
mass            3  107.87

pair_style      eam/alloy
pair_coeff      * * ZrCuAg.lammps.eam Zr Cu Ag

timestep       0.002

thermo_style    custom step time temp ke pe etotal enthalpy press vol pxx pyy pzz pyz pxz pxy
thermo          200

#Equilibracioan 1.5 ns
fix             1 all npt temp 1900 1900 0.2 iso 0.0 0.0 0.2
run    375000
  update every 1 steps, delay 10 steps, check yes
Step Time Temp KinEng PotEng TotEng Enthalpy Press Volume Pxx Pyy Pzz Pyz Pxz Pxy
0            0            0            0   -73211.217   -73211.217   -66299.811    40321.502       274625    40341.143    40394.122     40229.24    48.331332    58.974518   -130.59285
Averages over the last 938 of 1876 rows, steps 187600 to 375000:
Temp KinEng PotEng TotEng Enthalpy Press Volume Pxx Pyy Pzz Pyz Pxz Pxy
1900.36 3930.02 -70083.5 -66153.5 -66155.7 -9.54651 308918 -26.0533 10.3629 -12.9492 12.371 17.0449 -19.9309
Loop time of 1668.83 on 32 procs for 375000 steps with 16000 atoms

unfix 1

timestep	0.001
fix             2 all npt temp 1900 1900 0.2 iso 0.0 0.0 0.2
run    375000
Step Time Temp KinEng PotEng TotEng Enthalpy Press Volume Pxx Pyy Pzz Pyz Pxz Pxy
375000          750    1893.9421    3916.7348   -70080.086   -66163.351   -65917.528    1276.6984     308493.3     1936.221    1225.4674    668.40693    152.74346    339.18626   -1014.1472
Averages over the last 938 of 1876 rows, steps 562600 to 750000:
Temp KinEng PotEng TotEng Enthalpy Press Volume Pxx Pyy Pzz Pyz Pxz Pxy
1900.16 3929.6 -70085.2 -66155.6 -66159.3 -17.2792 308921 -24.2891 -8.4358 -19.1128 -7.10975 13.6252 -8.55025
Loop time of 1638.42 on 32 procs for 375000 steps with 16000 atoms

unfix 2
dump            melt all custom 25000 dumpAg10.lammpstrj id type x y z vz vy vz

timestep	0.002

fix             3 all npt temp 1900 1000 0.2 iso 0 0 0.2
run 450000
Step Time Temp KinEng PotEng TotEng Enthalpy Press Volume Pxx Pyy Pzz Pyz Pxz Pxy
750000         1125     1902.629    3934.6997   -70109.843   -66175.143    -66089.21    446.06908     308652.1   -282.75385    319.70769    1301.2534    314.08797   -131.51128   -427.74411
Averages over the last 1126 of 2251 rows, steps 975000 to 1200000:
Temp KinEng PotEng TotEng Enthalpy Press Volume Pxx Pyy Pzz Pyz Pxz Pxy
1225.41 2534.19 -72426.3 -69892.1 -69886.2 33.6337 295974 40.9582 13.954 45.989 -13.2793 -16.9692 0.721552
Loop time of 2043.16 on 32 procs for 450000 steps with 16000 atoms

unfix 3

dump_modify     melt every 250000

fix		4 all npt temp 1000 600 0.2 iso 0 0 0.2
run 2000000
Step Time Temp KinEng PotEng TotEng Enthalpy Press Volume Pxx Pyy Pzz Pyz Pxz Pxy
1200000         2025    1005.8937    2080.2215   -73291.561   -71211.339   -71480.746   -1477.6114    292117.92   -1873.5613   -1138.0419   -1421.2308   -289.02102    44.555105    470.41287
Averages over the last 5001 of 10001 rows, steps 2200000 to 3200000:
Temp KinEng PotEng TotEng Enthalpy Press Volume Pxx Pyy Pzz Pyz Pxz Pxy
700.103 1447.84 -74542.4 -73094.6 -73093.4 7.96874 285829 41.2049 -69.3014 52.0027 -121.569 57.2286 -6.59677
Loop time of 9081.52 on 32 procs for 2000000 steps with 16000 atoms

unfix 4

dump_modify     melt every 25000

fix		5 all npt temp 600 300 0.2 iso 0 0 0.2
run 150000
Step Time Temp KinEng PotEng TotEng Enthalpy Press Volume Pxx Pyy Pzz Pyz Pxz Pxy
3200000         6025      603.231    1247.5016   -74848.059   -73600.557   -73349.098    1419.0037    283919.35    2019.3147    950.00325    1287.6931   -90.884338   -19.656164    129.78479
Averages over the last 376 of 751 rows, steps 3275000 to 3350000:
Temp KinEng PotEng TotEng Enthalpy Press Volume Pxx Pyy Pzz Pyz Pxz Pxy
375.279 776.09 -75382.4 -74606.3 -74607.6 -6.4848 281579 557.443 -428.641 -148.256 -97.411 -188.712 -181.781
Loop time of 668.584 on 32 procs for 150000 steps with 16000 atoms
