LAMMPS (12 Dec 2018)
clear

boundary        p p p
units           metal
atom_style      atomic

read_data       Ag10.in.dat
  orthogonal box = (-32.5 -32.5 -32.5) to (32.5 32.5 32.5)
  reading atoms ...
  16000 atoms
mass            1  91.22
mass            2  63.55
mass            3  107.87

pair_style      eam/alloy
pair_coeff      * * ZrCuAg.lammps.eam Zr Cu Ag

timestep       0.002

thermo_style    custom step time temp ke pe etotal enthalpy press vol pxx pyy pzz pyz pxz pxy
thermo          200

#Equilibracioan 1.5 ns
fix             1 all npt temp 1900 1900 0.2 iso 0.0 0.0 0.2
run    375000
  update every 1 steps, delay 10 steps, check yes
Step Time Temp KinEng PotEng TotEng Enthalpy Press Volume Pxx Pyy Pzz Pyz Pxz Pxy
0            0            0            0   -73211.217   -73211.217   -66299.811    40321.502       274625    40341.143    40394.122     40229.24    48.331332    58.974518   -130.59285
Averages over the last 938 of 1876 rows, steps 187600 to 375000:
Temp KinEng PotEng TotEng Enthalpy Press Volume Pxx Pyy Pzz Pyz Pxz Pxy
1900.36 3930.02 -70083.5 -66153.5 -66155.7 -9.54651 308918 -26.0533 10.3629 -12.9492 12.371 17.0449 -19.9309
Loop time of 1719.98 on 32 procs for 375000 steps with 16000 atoms

unfix 1

timestep	0.001
fix             2 all npt temp 1900 1900 0.2 iso 0.0 0.0 0.2
run    375000
Step Time Temp KinEng PotEng TotEng Enthalpy Press Volume Pxx Pyy Pzz Pyz Pxz Pxy
375000          750    1893.9421    3916.7348   -70080.086   -66163.351   -65917.528    1276.6984     308493.3     1936.221    1225.4674    668.40693    152.74346    339.18626   -1014.1472
Averages over the last 938 of 1876 rows, steps 562600 to 750000:
Temp KinEng PotEng TotEng Enthalpy Press Volume Pxx Pyy Pzz Pyz Pxz Pxy
1900.16 3929.6 -70085.2 -66155.6 -66159.3 -17.2792 308921 -24.2891 -8.4358 -19.1128 -7.10975 13.6252 -8.55025
Loop time of 1697.89 on 32 procs for 375000 steps with 16000 atoms

unfix 2
dump            melt all custom 25000 dumpAg10.lammpstrj id type x y z vz vy vz

timestep	0.002

fix             3 all npt temp 1700 1000 0.2 iso 0 0 0.2
run 350000
Step Time Temp KinEng PotEng TotEng Enthalpy Press Volume Pxx Pyy Pzz Pyz Pxz Pxy
750000         1125     1902.629    3934.6997   -70109.843   -66175.143    -66089.21    446.06908     308652.1   -282.75385    319.70769    1301.2534    314.08797   -131.51128   -427.74411
Averages over the last 876 of 1751 rows, steps 925000 to 1100000:
Temp KinEng PotEng TotEng Enthalpy Press Volume Pxx Pyy Pzz Pyz Pxz Pxy
1174.95 2429.84 -72611.8 -70181.9 -70175.9 33.8625 295017 60.9353 -3.08038 43.7324 -13.2929 -15.9748 -19.214
Loop time of 1627.62 on 32 procs for 350000 steps with 16000 atoms

unfix 3

dump_modify     melt every 250000

fix		4 all npt temp 1000 600 0.2 iso 0 0 0.2
run 2000000
Step Time Temp KinEng PotEng TotEng Enthalpy Press Volume Pxx Pyy Pzz Pyz Pxz Pxy
1100000         1825    1003.4149    2075.0952   -73294.412   -71219.317   -71007.929    1162.1109    291436.58    457.48151     1035.807    1993.0443   -453.34132      145.341   -163.49147
Averages over the last 5001 of 10001 rows, steps 2100000 to 3100000:
Temp KinEng PotEng TotEng Enthalpy Press Volume Pxx Pyy Pzz Pyz Pxz Pxy
700.015 1447.66 -74547.6 -73100 -73099.2 5.04677 285784 124.058 -128.451 19.5332 39.1878 47.3909 85.7512
Loop time of 9280.98 on 32 procs for 2000000 steps with 16000 atoms

unfix 4

dump_modify     melt every 25000

fix		5 all npt temp 600 300 0.2 iso 0 0 0.2
run 150000
Step Time Temp KinEng PotEng TotEng Enthalpy Press Volume Pxx Pyy Pzz Pyz Pxz Pxy
3100000         5825    599.82503     1240.458   -74842.799   -73602.341   -73742.531   -789.45483    284511.84   -751.64891   -1412.6271   -204.08848   -232.58658    388.62262    574.92677
Averages over the last 376 of 751 rows, steps 3175000 to 3250000:
Temp KinEng PotEng TotEng Enthalpy Press Volume Pxx Pyy Pzz Pyz Pxz Pxy
375.161 775.846 -75385.4 -74609.5 -74613.7 -23.0076 281543 575.805 -571.191 -73.6363 257.762 242.189 -98.5621
Loop time of 691.605 on 32 procs for 150000 steps with 16000 atoms
